[TITLE]
 EPANET Example Network 1
A simple example of modeling chlorine decay. Both bulk and
wall reactions are included. 

[JUNCTIONS]
;ID              	Elev        	Demand      	Pattern         
 n12             	1711.30     	0           	                	;
 n22             	1711.30     	0           	                	;
 n32             	1711.30     	0           	                	;
 n42             	1711.3      	0           	                	;
 n52             	1711.3      	0           	                	;
 n62             	1711.3      	0           	                	;
 n11             	1714.7      	0           	                	;
 n21             	1714.7      	0           	                	;
 n31             	1714.7      	0           	                	;
 n41             	1714.7      	0           	                	;
 n51             	1714.7      	0           	                	;
 n61             	1714.7      	0           	                	;
 2               	1714.7      	0           	                	;
 3               	1714.7      	0           	                	;
 4               	1714.7      	0           	                	;
 5               	1714.7      	0           	                	;
 6               	1714.7      	0           	                	;
 7               	1714.7      	0           	                	;
 8               	1711.30     	0           	                	;
 9               	1711.30     	0           	                	;
 10              	1711.30     	0           	                	;
 11              	1711.3      	0           	                	;
 12              	1711.3      	0           	                	;
 13              	1711.3      	0           	                	;
 15              	1714.7      	0           	                	;
 16              	1714.7      	0           	                	;
 17              	1714.7      	0           	                	;
 18              	1711.95     	0           	                	;
 20              	1711.95     	0           	                	;
 1               	1711.95     	0           	                	;
 19              	1711.95     	0           	                	;
 21              	1711.95     	0           	                	;
 22              	1711.95     	0           	                	;

[RESERVOIRS]
;ID              	Head        	Pattern         
 14              	1716        	                	;

[TANKS]
;ID              	Elevation   	InitLevel   	MinLevel    	MaxLevel    	Diameter    	MinVol      	VolCurve
 t1              	1712        	0.2         	0.2         	3           	6.86        	0           	                	;
 t2              	1712        	0.2         	0.2         	3           	6.86        	0           	                	;
 t3              	1712        	0.2         	0.2         	3           	6.86        	0           	                	;
 t4              	1712        	0.2         	0.2         	3           	6.86        	0           	                	;
 t5              	1712        	0.2         	0.2         	3           	6.86        	0           	                	;
 t6              	1712        	0.2         	0.2         	3           	6.86        	0           	                	;

[PIPES]
;ID              	Node1           	Node2           	Length      	Diameter    	Roughness   	MinorLoss   	Status
 12              	n11             	t1              	0.5         	300         	0.045       	0           	CV    	;
 22              	n21             	t2              	0.5         	300         	0.045       	0           	CV    	;
 32              	n31             	t3              	0.5         	300         	0.045       	0           	CV    	;
 42              	n41             	t4              	0.5         	300         	0.045       	0           	CV    	;
 52              	n51             	t5              	0.5         	300         	0.045       	0           	CV    	;
 62              	n61             	t6              	0.5         	300         	0.045       	0           	CV    	;
 4               	n12             	8               	0.5         	300         	0.04        	0           	CV    	;
 5               	n22             	9               	0.5         	300         	0.045       	0           	CV    	;
 6               	n32             	10              	0.5         	300         	0.045       	0           	CV    	;
 7               	n42             	11              	0.5         	300         	0.045       	0           	CV    	;
 8               	n52             	12              	0.5         	300         	0.045       	0           	CV    	;
 9               	n62             	13              	0.5         	300         	0.045       	0           	CV    	;
 1               	14              	15              	3           	300         	0.045       	0           	Open  	;
 10              	15              	16              	8           	300         	0.045       	0           	Open  	;
 18              	17              	2               	2           	300         	0.045       	0           	CV    	;
 19              	2               	3               	3           	300         	0.045       	0           	Open  	;
 20              	3               	4               	3           	300         	0.045       	0           	Open  	;
 21              	4               	5               	3           	300         	0.045       	0           	Open  	;
 29              	5               	6               	3           	300         	0.045       	0           	Open  	;
 30              	6               	7               	3           	300         	0.045       	0           	Open  	;
 33              	t1              	18              	0.2         	300         	0.1         	0           	CV    	;
 35              	t2              	20              	0.2         	300         	0.1         	0           	CV    	;
 23              	t3              	1               	0.2         	300         	0.1         	0           	CV    	;
 25              	t4              	19              	0.2         	300         	0.1         	0           	CV    	;
 26              	t5              	21              	0.2         	300         	0.1         	0           	CV    	;
 28              	t6              	22              	0.2         	300         	0.1         	0           	CV    	;

[PUMPS]
;ID              	Node1           	Node2           	Parameters

[VALVES]
;ID              	Node1           	Node2           	Diameter    	Type	Setting     	MinorLoss   
 3               	2               	n11             	250         	PSV 	0           	0           	;
 13              	3               	n21             	250         	PSV 	0           	0           	;
 14              	4               	n31             	250         	PSV 	0           	0           	;
 15              	5               	n41             	250         	PSV 	0           	0           	;
 16              	6               	n51             	250         	PSV 	0           	0           	;
 17              	7               	n61             	250         	PSV 	0           	0           	;
 11              	16              	17              	250         	FCV 	300         	0           	;
 31              	18              	n12             	300         	FCV 	50          	0           	;
 34              	20              	n22             	300         	FCV 	50          	0           	;
 2               	1               	n32             	300         	FCV 	50          	0           	;
 24              	19              	n42             	300         	FCV 	50          	0           	;
 27              	21              	n52             	300         	FCV 	50          	0           	;
 36              	22              	n62             	300         	FCV 	50          	0           	;

[TAGS]

[DEMANDS]
;Junction        	Demand      	Pattern         	Category

[STATUS]
;ID              	Status/Setting

[PATTERNS]
;ID              	Multipliers
;Demand Pattern
 1               	1.0         	1.2         	1.4         	1.6         	1.4         	1.2         
 1               	1.0         	0.8         	0.6         	0.4         	0.6         	0.8         
;Filter demand
 2               	1           	1           	1           	1           	1           	1           
 2               	1           	1           	1           	1           	1           	1           

[CURVES]
;ID              	X-Value     	Y-Value
;PUMP: PUMP: PUMP: PUMP: Pump Curve for Pump 9
 1               	300         	5           

[CONTROLS]


[RULES]




[ENERGY]
 Global Efficiency  	75
 Global Price       	0.0
 Demand Charge      	0.0

[EMITTERS]
;Junction        	Coefficient
 8               	50
 9               	50
 10              	50
 11              	50
 12              	50
 13              	50

[QUALITY]
;Node            	InitQual
 t1              	1.0

[SOURCES]
;Node            	Type        	Quality     	Pattern

[REACTIONS]
;Type     	Pipe/Tank       	Coefficient


[REACTIONS]
 Order Bulk            	1
 Order Tank            	1
 Order Wall            	1
 Global Bulk           	-.5
 Global Wall           	-1
 Limiting Potential    	0.0
 Roughness Correlation 	0.0

[MIXING]
;Tank            	Model
 t1              	FIFO        	
 t2              	FIFO        	
 t3              	FIFO        	
 t4              	FIFO        	
 t5              	FIFO        	
 t6              	FIFO        	

[TIMES]
 Duration           	72:00 
 Hydraulic Timestep 	0:01
 Quality Timestep   	0:01
 Pattern Timestep   	1:00
 Pattern Start      	0:00
 Report Timestep    	0:01
 Report Start       	0:00
 Start ClockTime    	12 am
 Statistic          	None

[REPORT]
 Status             	Yes
 Summary            	No
 Page               	0

[OPTIONS]
 Units              	LPS
 Headloss           	D-W
 Specific Gravity   	1.0
 Viscosity          	1.0
 Trials             	40
 Accuracy           	0.001
 CHECKFREQ          	2
 MAXCHECK           	10
 DAMPLIMIT          	0
 Unbalanced         	Continue 10
 Pattern            	1
 Demand Multiplier  	1.0
 Emitter Exponent   	0.5
 Quality            	Chlorine mg/L
 Diffusivity        	1.0
 Tolerance          	0.01

[COORDINATES]
;Node            	X-Coord         	Y-Coord
 n12             	65.00           	90.00           
 n22             	65.00           	82.50           
 n32             	65.00           	75.00           
 n42             	65.00           	67.50           
 n52             	65.00           	60.00           
 n62             	65.00           	52.50           
 n11             	30.00           	90.00           
 n21             	30.00           	82.50           
 n31             	30.00           	75.00           
 n41             	30.00           	67.50           
 n51             	30.00           	60.00           
 n61             	30.00           	52.50           
 2               	15.00           	90.00           
 3               	15.00           	82.50           
 4               	15.00           	75.00           
 5               	15.00           	67.50           
 6               	15.00           	60.00           
 7               	15.00           	52.50           
 8               	80.00           	90.00           
 9               	80.00           	82.50           
 10              	80.00           	75.00           
 11              	80.00           	67.50           
 12              	80.00           	60.00           
 13              	80.00           	52.50           
 15              	45.00           	100.00          
 16              	24.97           	100.00          
 17              	15.00           	100.00          
 18              	53.00           	90.00           
 20              	53.00           	82.50           
 1               	53.00           	75.00           
 19              	53.00           	67.50           
 21              	53.55           	59.73           
 22              	54.03           	52.21           
 14              	45.00           	110.00          
 t1              	45.00           	90.00           
 t2              	45.00           	82.50           
 t3              	45.00           	75.00           
 t4              	45.00           	67.50           
 t5              	45.00           	60.00           
 t6              	45.00           	52.50           

[VERTICES]
;Link            	X-Coord         	Y-Coord

[LABELS]
;X-Coord           Y-Coord          Label & Anchor Node

[BACKDROP]
 DIMENSIONS     	7.00            	6.00            	73.00           	94.00           
 UNITS          	None
 FILE           	
 OFFSET         	0.00            	0.00            

[END]
